Version 4
SHEET 1 4292 1516
WIRE -896 -80 -896 -128
WIRE -896 -80 -976 -80
WIRE -896 -16 -896 -80
WIRE 1136 -16 1024 -16
WIRE 1296 -16 1216 -16
WIRE -448 0 -544 0
WIRE -544 48 -544 0
WIRE -896 96 -896 64
WIRE -720 96 -896 96
WIRE -576 96 -720 96
WIRE -448 96 -448 0
WIRE -448 96 -496 96
WIRE -896 128 -896 96
WIRE -720 128 -720 96
WIRE -448 128 -448 96
WIRE 1168 144 1168 96
WIRE 528 160 528 112
WIRE 1024 160 1024 -16
WIRE 1024 160 928 160
WIRE 1136 160 1024 160
WIRE 496 176 384 176
WIRE 1296 176 1296 -16
WIRE 1296 176 1200 176
WIRE 656 192 560 192
WIRE 1136 192 1024 192
WIRE 496 208 384 208
WIRE 1168 240 1168 208
WIRE -720 256 -720 208
WIRE -608 256 -720 256
WIRE -448 256 -448 208
WIRE -448 256 -544 256
WIRE 528 256 528 224
WIRE -896 272 -896 192
WIRE 928 272 928 224
WIRE 1024 352 1024 192
WIRE 1120 352 1024 352
WIRE 1296 352 1296 176
WIRE 1296 352 1200 352
WIRE 384 368 384 208
WIRE 480 368 384 368
WIRE 656 368 656 192
WIRE 656 368 560 368
WIRE 1024 368 1024 352
WIRE 384 384 384 368
WIRE -288 400 -496 400
WIRE -576 416 -576 368
WIRE -720 432 -720 256
WIRE -608 432 -720 432
WIRE -496 448 -496 400
WIRE -496 448 -544 448
WIRE -448 448 -448 256
WIRE -448 448 -496 448
WIRE -608 464 -720 464
WIRE 1024 480 1024 448
WIRE 384 496 384 464
WIRE -576 512 -576 480
WIRE -720 624 -720 464
WIRE -624 624 -720 624
WIRE -448 624 -448 448
WIRE -448 624 -544 624
WIRE -720 640 -720 624
WIRE -720 752 -720 720
WIRE 736 768 736 720
WIRE 576 784 560 784
WIRE 672 784 656 784
WIRE 704 784 672 784
WIRE 832 800 768 800
WIRE 928 800 912 800
WIRE 1152 800 928 800
WIRE 560 816 560 784
WIRE 560 816 368 816
WIRE 704 816 560 816
WIRE 928 848 928 800
WIRE -288 864 -288 848
WIRE -288 864 -384 864
WIRE -144 864 -288 864
WIRE 96 864 -144 864
WIRE 192 864 96 864
WIRE -384 880 -384 864
WIRE -144 880 -144 864
WIRE 672 880 672 784
WIRE 736 880 736 832
WIRE -288 896 -288 864
WIRE -16 928 -96 928
WIRE 96 928 64 928
WIRE 192 928 96 928
WIRE 928 960 928 928
WIRE -384 976 -384 944
WIRE -336 976 -384 976
WIRE -288 976 -288 960
WIRE -288 976 -336 976
WIRE -144 976 -144 960
WIRE -144 976 -288 976
WIRE 672 976 672 944
WIRE -336 1008 -336 976
WIRE -1776 1104 -1776 1072
WIRE -1520 1104 -1520 1072
FLAG -1776 1184 0
FLAG -1776 1072 9V
FLAG -336 1008 0
FLAG -288 768 9V
FLAG 192 864 Vref
FLAG -576 512 0
FLAG -576 368 9V
FLAG -720 752 Vref
FLAG -896 272 0
FLAG -896 -128 Vbias
FLAG -976 -80 LFO
FLAG 192 928 Vbias
FLAG -1520 1184 0
FLAG -1520 1072 IN
FLAG 1168 240 0
FLAG 1168 96 9V
FLAG 1024 480 Vref
FLAG 928 272 0
FLAG 528 256 0
FLAG 528 112 9V
FLAG 384 496 Vref
FLAG 384 176 IN
FLAG 672 976 0
FLAG 736 880 0
FLAG 736 720 9V
FLAG 368 816 LFO
FLAG 928 960 0
FLAG -288 400 CLK
SYMBOL voltage -1776 1088 R0
WINDOW 123 0 0 Left 0
WINDOW 39 0 0 Left 0
SYMATTR InstName V1
SYMATTR Value 9V
SYMBOL pot -480 112 M270
WINDOW 0 52 82 VRight 2
WINDOW 3 140 -33 VRight 1
WINDOW 38 161 41 VRight 1
SYMATTR InstName VR1
SYMATTR Value Rt=470K set={rate}
SYMATTR SpiceModel pot_alps_c
SYMATTR SpiceLine ""
SYMBOL res -304 752 R0
SYMATTR InstName R16
SYMATTR Value 10K
SYMBOL polcap -400 880 R0
SYMATTR InstName C9
SYMATTR Value 47µ
SYMBOL OpAmps\\opamp2 -576 384 R0
SYMATTR InstName U1
SYMATTR Value TL072
SYMBOL res -736 624 R0
SYMATTR InstName R4
SYMATTR Value 150K
SYMBOL res -736 112 R0
SYMATTR InstName R5
SYMATTR Value 150K
SYMBOL cap -544 240 R90
WINDOW 0 0 32 VBottom 2
WINDOW 3 32 32 VTop 2
SYMATTR InstName C11
SYMATTR Value 10n
SYMBOL pot -160 864 R0
WINDOW 0 52 82 VRight 2
WINDOW 3 16 161 Left 1
WINDOW 38 17 186 Left 1
SYMATTR InstName VR4
SYMATTR Value Rt=100K set=0.5
SYMATTR SpiceLine ""
SYMBOL res -528 608 R90
WINDOW 0 0 56 VBottom 2
WINDOW 3 32 56 VTop 2
SYMATTR InstName R3
SYMATTR Value 470K
SYMBOL polcap -912 128 R0
SYMATTR InstName C1
SYMATTR Value 10µ
SYMBOL res -912 -32 R0
SYMATTR InstName R1
SYMATTR Value 4.7Meg
SYMBOL zener -272 960 R180
WINDOW 0 24 64 Left 2
WINDOW 3 -96 -6 Left 2
SYMATTR InstName D1
SYMATTR Value UMZ5_1N
SYMATTR Description Diode
SYMATTR Type diode
SYMBOL res 80 912 R90
WINDOW 0 0 56 VBottom 2
WINDOW 3 32 56 VTop 2
SYMATTR InstName R2
SYMATTR Value 1Meg
SYMBOL cap 80 864 R0
SYMATTR InstName C2
SYMATTR Value 47n
SYMBOL res -464 112 R0
SYMATTR InstName R6
SYMATTR Value 2k
SYMBOL voltage -1520 1088 R0
WINDOW 123 0 0 Left 0
WINDOW 39 0 0 Left 0
SYMATTR InstName V2
SYMATTR Value PULSE(0 9V 0 0.5 0.5 0 1)
SYMBOL OpAmps\\opamp2 1168 112 R0
SYMATTR InstName U4
SYMATTR Value TL072
SYMBOL res 1008 352 R0
SYMATTR InstName R12
SYMATTR Value 150K
SYMBOL res 1216 336 R90
WINDOW 0 0 56 VBottom 2
WINDOW 3 32 56 VTop 2
SYMATTR InstName R13
SYMATTR Value 470K
SYMBOL polcap 912 160 R0
SYMATTR InstName C5
SYMATTR Value 10µ
SYMBOL res 1232 -32 R90
WINDOW 0 0 56 VBottom 2
WINDOW 3 32 56 VTop 2
SYMATTR InstName R15
SYMATTR Value 10K
SYMBOL OpAmps\\opamp2 528 128 R0
SYMATTR InstName U2
SYMATTR Value TL072
SYMBOL res 368 368 R0
SYMATTR InstName R7
SYMATTR Value 150K
SYMBOL res 576 352 R90
WINDOW 0 0 56 VBottom 2
WINDOW 3 32 56 VTop 2
SYMATTR InstName R8
SYMATTR Value 470K
SYMBOL OpAmps\\opamp2 736 736 R0
SYMATTR InstName U3
SYMATTR Value TL072
SYMBOL res 672 768 R90
WINDOW 0 0 56 VBottom 2
WINDOW 3 32 56 VTop 2
SYMATTR InstName R9
SYMATTR Value 10k
SYMBOL cap 656 880 R0
SYMATTR InstName C3
SYMATTR Value 1µ
SYMBOL res 928 784 R90
WINDOW 0 0 56 VBottom 2
WINDOW 3 32 56 VTop 2
SYMATTR InstName R10
SYMATTR Value 5k
SYMBOL res 912 832 R0
SYMATTR InstName R11
SYMATTR Value 10k
TEXT -400 -216 Left 2 !.inc TL072.301
TEXT -1672 888 Left 2 ;Phase 45
TEXT -1720 920 Left 1 ;https://barbarach.com
TEXT -1288 1040 Left 2 !.tran 11
TEXT -1288 840 Left 2 !.param rate=.5
TEXT -1288 768 Left 2 !;.step param rate 0 1 0.2
TEXT -1808 1208 Left 2 !;dc V2 0 7V 0.5
TEXT 440 512 Left 2 ;Schmitt Trigger
TEXT 1120 488 Left 2 ;Oscillator using Schmitt Trigger, no integrator
